BrF5
APtclcactv07311817453D 0   0.00000     0.00000
 
  6  5  0  0  0  0  0  0  0  0999 V2000
   -0.0000    0.0000   -0.1858 Br  0  0  0  0  0  0  0  0  0  0  0  0
   -1.2092    1.2091   -0.1858 F   0  0  0  0  0  0  0  0  0  0  0  0
    1.2092   -1.2091   -0.1858 F   0  0  0  0  0  0  0  0  0  0  0  0
    1.2091    1.2092   -0.1858 F   0  0  0  0  0  0  0  0  0  0  0  0
   -1.2091   -1.2092   -0.1858 F   0  0  0  0  0  0  0  0  0  0  0  0
    0.0000   -0.0000    1.5242 F   0  0  0  0  0  0  0  0  0  0  0  0
  1  2  1  0  0  0  0
  1  3  1  0  0  0  0
  1  4  1  0  0  0  0
  1  5  1  0  0  0  0
  1  6  1  0  0  0  0
M  END
$$$$
